Version 4
SHEET 1 2408 700
WIRE 928 -384 928 -416
WIRE 1040 -384 928 -384
WIRE 1152 -384 1152 -416
WIRE 1264 -384 1152 -384
WIRE 624 -368 624 -400
WIRE 928 -368 928 -384
WIRE 1152 -368 1152 -384
WIRE 1040 -352 1040 -384
WIRE 1264 -352 1264 -384
WIRE 928 -256 928 -288
WIRE 1040 -256 1040 -288
WIRE 1040 -256 928 -256
WIRE 1152 -256 1152 -288
WIRE 1264 -256 1264 -288
WIRE 1264 -256 1152 -256
WIRE 928 -240 928 -256
WIRE 1152 -240 1152 -256
WIRE 128 -144 64 -144
WIRE 256 -144 208 -144
WIRE 64 0 64 -144
WIRE 128 0 64 0
WIRE 256 0 256 -144
WIRE 256 0 208 0
WIRE 240 64 80 64
WIRE 256 64 256 0
WIRE 256 64 240 64
WIRE 2112 80 2112 48
WIRE 2112 80 2080 80
WIRE 1696 96 1696 64
WIRE 1696 96 1680 96
WIRE 1872 96 1872 48
WIRE 1952 96 1872 96
WIRE 1520 112 1520 48
WIRE 1552 112 1520 112
WIRE 2160 112 2080 112
WIRE 240 128 240 64
WIRE 240 128 208 128
WIRE 1760 128 1680 128
WIRE 1952 128 1840 128
WIRE 2160 128 2160 112
WIRE 80 144 80 64
WIRE 112 144 80 144
WIRE 1552 144 1472 144
WIRE 1760 144 1760 128
WIRE 2112 144 2080 144
WIRE 272 160 208 160
WIRE 1152 160 1056 160
WIRE 1328 160 1232 160
WIRE 1712 160 1680 160
WIRE 64 176 64 0
WIRE 112 176 64 176
WIRE 272 176 272 160
WIRE 240 192 208 192
WIRE 2112 224 2112 144
WIRE 1056 240 1056 160
WIRE 1056 240 1040 240
WIRE 640 256 608 256
WIRE 1248 256 1216 256
WIRE 1712 256 1712 160
WIRE 240 272 240 192
WIRE 240 272 160 272
WIRE 480 272 240 272
WIRE 1056 272 1056 240
WIRE 1088 272 1056 272
WIRE 752 288 608 288
WIRE 1248 288 1216 288
WIRE 160 304 160 272
WIRE 480 304 416 304
WIRE 752 304 752 288
WIRE 1088 304 1056 304
WIRE 640 320 608 320
WIRE 1328 320 1328 160
WIRE 1328 320 1216 320
WIRE 1472 320 1472 144
WIRE 1472 320 1328 320
WIRE 640 336 640 320
WIRE 656 336 640 336
WIRE 784 336 736 336
WIRE 896 336 784 336
WIRE 960 336 896 336
WIRE 1056 336 1056 304
WIRE 1056 336 1040 336
WIRE 1072 336 1056 336
WIRE 1472 352 1472 320
WIRE 1840 352 1840 128
WIRE 1840 352 1472 352
WIRE 784 368 784 336
WIRE 1056 384 1056 336
WIRE 416 400 416 304
WIRE 640 400 640 336
WIRE 640 400 416 400
WIRE 1520 400 1520 112
WIRE 1584 400 1520 400
WIRE 1632 400 1584 400
WIRE 1712 400 1712 256
WIRE 1872 400 1872 96
WIRE 1920 400 1872 400
WIRE 1984 400 1920 400
WIRE 2112 400 2112 224
WIRE 2112 400 2064 400
WIRE 1872 416 1872 400
WIRE 784 448 784 432
WIRE 1520 448 1520 400
WIRE 1520 560 1520 528
FLAG 272 176 0
FLAG 160 384 0
FLAG 896 336 CURR
FLAG 752 -288 0
FLAG 1696 64 3.3VA
FLAG 2112 48 3.3VA
FLAG 1712 256 DIRECT_EN
FLAG 624 -288 0
FLAG 624 -400 POW_LIM
FLAG 2112 224 Charge_EN
FLAG 1152 -416 3.3VA
FLAG 1152 -240 0
FLAG 784 448 0
FLAG 960 240 POW_LIM
FLAG 752 -368 3.3-ve
FLAG 928 -416 24V
FLAG 928 -240 0
FLAG 640 256 24V
FLAG 752 304 0
FLAG 1248 256 3.3VA
FLAG 1248 288 3.3-ve
FLAG 1328 320 V_Extra
FLAG 1584 400 Den_ref
FLAG 1520 -32 3.3VA
FLAG 1760 144 3.3-ve
FLAG 2160 128 3.3-ve
FLAG 1872 -32 3.3VA
FLAG 1520 560 3.3-ve
FLAG 1872 496 3.3-ve
FLAG 1056 464 0
FLAG 1920 400 CEN_ref
FLAG 64 -144 24V
SYMBOL res 224 -16 R90
WINDOW 0 0 56 VBottom 2
WINDOW 3 32 56 VTop 2
SYMATTR InstName R1
SYMATTR Value 0.02
SYMATTR SpiceLine tol=1
SYMBOL res 144 288 R0
SYMATTR InstName R2
SYMATTR Value 100k
SYMATTR SpiceLine tol=5
SYMBOL current 128 -144 R270
WINDOW 0 32 40 VTop 2
WINDOW 3 -32 40 VBottom 2
WINDOW 123 0 0 Left 0
WINDOW 39 0 0 Left 0
SYMATTR InstName I1
SYMATTR Value 1
SYMBOL voltage 928 -384 R0
WINDOW 123 0 0 Left 0
WINDOW 39 0 0 Left 0
SYMATTR InstName V1
SYMATTR Value 24
SYMBOL voltage 752 -384 R0
WINDOW 123 0 0 Left 0
WINDOW 39 0 0 Left 0
SYMATTR InstName V2
SYMATTR Value -3.3
SYMBOL res 1504 432 R0
SYMATTR InstName R3
SYMATTR Value 988
SYMATTR SpiceLine tol=5
SYMBOL res 1728 384 R90
WINDOW 0 0 56 VBottom 2
WINDOW 3 32 56 VTop 2
SYMATTR InstName R4
SYMATTR Value 3.97k
SYMATTR SpiceLine tol=5
SYMBOL voltage 624 -384 R0
WINDOW 123 0 0 Left 0
WINDOW 39 0 0 Left 0
SYMATTR InstName V3
SYMATTR Value 2
SYMBOL res 1856 -48 R0
SYMATTR InstName R6
SYMATTR Value 5.36k
SYMATTR SpiceLine tol=2
SYMBOL res 1504 -48 R0
SYMATTR InstName R5
SYMATTR Value 1.21k
SYMATTR SpiceLine tol=2
SYMBOL res 1856 400 R0
SYMATTR InstName R7
SYMATTR Value 9.31k
SYMBOL res 2080 384 R90
WINDOW 0 0 56 VBottom 2
WINDOW 3 32 56 VTop 2
SYMATTR InstName R8
SYMATTR Value 23.2k
SYMBOL voltage 1152 -384 R0
SYMATTR InstName V4
SYMATTR Value 3.3
SYMBOL res 752 320 R90
WINDOW 0 0 56 VBottom 2
WINDOW 3 32 56 VTop 2
SYMATTR InstName R9
SYMATTR Value 100
SYMBOL cap 768 368 R0
SYMATTR InstName C2
SYMATTR Value 0.1µ
SYMBOL res 1056 320 R90
WINDOW 0 0 56 VBottom 2
WINDOW 3 32 56 VTop 2
SYMATTR InstName R10
SYMATTR Value 30k
SYMBOL res 1056 224 R90
WINDOW 0 0 56 VBottom 2
WINDOW 3 32 56 VTop 2
SYMATTR InstName R11
SYMATTR Value 30k
SYMBOL res 1248 144 R90
WINDOW 0 0 56 VBottom 2
WINDOW 3 32 56 VTop 2
SYMATTR InstName R12
SYMATTR Value 120k
SYMBOL res 1040 368 R0
SYMATTR InstName R13
SYMATTR Value 120k
SYMBOL cap 1024 -352 R0
SYMATTR InstName C1
SYMATTR Value 0.1µ
SYMBOL cap 1248 -352 R0
SYMATTR InstName C3
SYMATTR Value 0.1µ
SYMBOL LMX58_LM2904 544 288 R0
SYMATTR InstName U2
SYMBOL LMX58_LM2904 1152 288 R0
SYMATTR InstName U5
SYMBOL LM393LV 1616 128 R0
SYMATTR InstName U3
SYMBOL LM393LV 2016 112 R0
SYMATTR InstName U4
SYMBOL INA138 160 160 R0
SYMATTR InstName U1
TEXT 88 -256 Left 2 !.dc I1 0 10
