Version 4
SHEET 1 1056 704
WIRE 320 0 96 0
WIRE -208 96 -208 48
WIRE 144 96 0 96
WIRE 320 96 320 0
WIRE 320 96 272 96
WIRE 96 128 96 0
WIRE 144 128 96 128
WIRE 480 128 272 128
WIRE 592 128 480 128
WIRE 144 160 48 160
WIRE 368 160 272 160
WIRE 368 176 368 160
WIRE 480 176 480 128
WIRE 592 176 592 128
WIRE 48 192 48 160
WIRE 96 192 96 128
WIRE 144 192 96 192
WIRE 320 192 272 192
WIRE -208 208 -208 176
WIRE 368 288 368 240
WIRE 480 288 480 240
WIRE 480 288 368 288
WIRE 96 304 96 192
WIRE 160 304 96 304
WIRE 272 304 240 304
WIRE 320 304 320 192
WIRE 320 304 272 304
WIRE 368 304 368 288
WIRE 0 416 0 96
WIRE 160 416 0 416
WIRE 592 416 592 256
WIRE 592 416 240 416
WIRE 672 416 592 416
WIRE 832 416 752 416
WIRE 960 416 832 416
WIRE 0 448 0 416
WIRE 592 448 592 416
WIRE 832 448 832 416
WIRE 960 448 960 416
WIRE 0 560 0 528
WIRE 592 560 592 512
WIRE 832 560 832 512
WIRE 960 560 960 528
FLAG -208 208 0
FLAG -208 48 24pc
FLAG 368 304 0
FLAG 272 304 24pc
FLAG 0 560 0
FLAG 592 560 0
FLAG 48 192 0
FLAG 832 560 0
FLAG 832 416 Vo
FLAG 960 560 0
SYMBOL res 144 320 R270
WINDOW 0 32 56 VTop 2
WINDOW 3 0 56 VBottom 2
SYMATTR InstName R1
SYMATTR Value 0.33
SYMBOL cap 352 176 R0
SYMATTR InstName C2
SYMATTR Value 470p
SYMBOL schottky 464 240 M180
WINDOW 0 24 64 Left 2
WINDOW 3 24 0 Left 2
SYMATTR InstName D1
SYMATTR Value BAT54
SYMATTR Description Diode
SYMATTR Type diode
SYMBOL ind 576 160 R0
SYMATTR InstName L1
SYMATTR Value 220µ
SYMBOL res 256 400 R90
WINDOW 0 0 56 VBottom 2
WINDOW 3 32 56 VTop 2
SYMATTR InstName R2
SYMATTR Value 3.6k
SYMBOL res -16 432 R0
SYMATTR InstName R3
SYMATTR Value 2.2k
SYMBOL polcap 576 448 R0
SYMATTR InstName C3
SYMATTR Value 470µ
SYMBOL ind 656 432 R270
WINDOW 0 32 56 VTop 2
WINDOW 3 5 56 VBottom 2
SYMATTR InstName L2
SYMATTR Value 220µ
SYMBOL polcap 816 448 R0
SYMATTR InstName C4
SYMATTR Value 100µ
SYMBOL AutoGenerated\\MC33063A-Q1_TRANS 208 144 R0
SYMATTR InstName U1
SYMBOL voltage -208 80 R0
WINDOW 123 0 0 Left 0
WINDOW 39 0 0 Left 0
SYMATTR InstName V1
SYMATTR Value 24
SYMBOL current 960 448 R0
WINDOW 123 0 0 Left 0
WINDOW 39 0 0 Left 0
SYMATTR InstName I1
SYMATTR Value 100m
TEXT -272 -48 Left 2 ;Vin
TEXT -368 584 Left 2 !.tran 0 15m 0 1m
TEXT 680 640 Left 2 !.step dec param C3 100u 10m 2
TEXT 688 688 Left 2 !.step dec param L2 100u 10m 2
LINE Normal -368 288 -368 -80 2
LINE Normal -96 288 -368 288 2
LINE Normal -96 -80 -96 288 2
LINE Normal -368 -80 -96 -80 2
