Version 4
SHEET 1 1264 680
WIRE 160 80 0 80
WIRE 224 80 160 80
WIRE 368 80 224 80
WIRE 768 80 368 80
WIRE 928 80 864 80
WIRE 1072 80 928 80
WIRE 1152 80 1072 80
WIRE 0 96 0 80
WIRE 224 96 224 80
WIRE 368 96 368 80
WIRE 1072 96 1072 80
WIRE 160 112 160 80
WIRE 368 176 368 160
WIRE 432 176 368 176
WIRE 816 176 736 176
WIRE 1072 192 1072 160
WIRE 224 208 224 160
WIRE 432 208 224 208
WIRE 928 208 928 80
WIRE 928 208 736 208
WIRE 160 240 160 176
WIRE 224 240 224 208
WIRE 224 240 160 240
WIRE 432 240 400 240
WIRE 768 240 768 80
WIRE 768 240 736 240
WIRE 224 304 224 240
WIRE 400 304 400 240
WIRE 848 304 848 128
WIRE 848 304 400 304
WIRE 816 320 816 176
WIRE 816 432 816 400
FLAG 0 176 0
FLAG 224 304 0
FLAG 1072 192 0
FLAG 1152 80 Vout
IOPIN 1152 80 Out
FLAG 816 432 0
SYMBOL TVSdiode 176 176 R180
WINDOW 0 24 64 Left 2
WINDOW 3 24 0 Left 2
SYMATTR InstName D4
SYMATTR Value SMCJ33A
SYMATTR Description Diode
SYMATTR Type diode
SYMBOL voltage 0 80 R0
WINDOW 123 0 0 Left 0
WINDOW 39 0 0 Left 0
SYMATTR InstName V1
SYMATTR Value 24
SYMBOL cap 208 96 R0
SYMATTR InstName C24
SYMATTR Value 0.022µ
SYMBOL LM74700-Q1_TRANS 592 208 R180
SYMATTR InstName U1
SYMBOL cap 352 96 R0
SYMATTR InstName C25
SYMATTR Value 0.1µ
SYMBOL nmos 768 128 R270
SYMATTR InstName Q3
SYMBOL cap 1056 96 R0
SYMATTR InstName C26
SYMATTR Value 47µ
SYMBOL voltage 816 304 R0
WINDOW 123 0 0 Left 0
WINDOW 39 0 0 Left 0
SYMATTR InstName V2
SYMATTR Value PULSE(0 5 10m 0 0 250u 500u)
TEXT -32 456 Left 2 !.tran 0 15m 8m
